.subckt opamp 1 2 3 4 5
* in+ in- out v+ v-
E1 3 0 1 2 1e6
.ends opamp
