2
1
.ac dec 1000 100m 100k
4
9
/A1
V
5
/A1
V
9
/A2
V
5
/A2
V
9
.tran 100m 2
2
1
/A0
V
1
Net-(C6-Pad2)
V
